/*--------------------------------*- C++ -*----------------------------------*\
  =========                 |
| \\      /  F ield         | OpenFOAM: The Open Source CFD Toolbox           |
|  \\    /   O peration     | Version:  7.0                                   |
|   \\  /    A nd           | Website:  https://openfoam.org                  |
|    \\/     M anipulation  |                                                 |
\*---------------------------------------------------------------------------*/
FoamFile
{
    version     2.0;
    format      ascii;
    class       dictionary;
    object      constitutiveProperties;
}
// * * * * * * * * * * * * * * * * * * * * * * * * * * * * * * * * * * * * * //
 
phases (water oil);

water
{
      
       parameters
       {		        
         type             Newtonian;
         rho              rho [1 -3 0 0 0 0 0] 1000;
         eta              eta [1 -1 -1 0 0 0 0] 1.0e-3; 
         eps              eps [-1 -3 4 0 0 2 0] 7.17189e-10;
         sig              sig [-1 -3 3 0 0 2 0] 1e-04;
       }      
}

/*oil
{
      
       parameters
       {		        
         type             Newtonian;
         rho              rho [1 -3 0 0 0 0 0] 960;
         eta              eta [1 -1 -1 0 0 0 0] 0.01; 
         eps              eps [-1 -3 4 0 0 2 0] 2.65625e-11;
         sig              sig [-1 -3 3 0 0 2 0] 1e-12;
       }      
}*/

oil
{
     parameters
       {		        
         type            Oldroyd-BLog;
         rho             rho [ 1 -3 0 0 0 0 0 ] 972;
         etaS            etaS [1 -1 -1 0 0 0 0] 0.01;
         etaP            etaP [1 -1 -1 0 0 0 0] 0.03;  
         lambda          lambda [0 0 1 0 0 0 0] 0.02;
         eps             eps [-1 -3 4 0 0 2 0] 2.656e-11;
         sig             sig [-1 -3 3 0 0 2 0] 1e-12;

         stabilization    coupling;
       }
}
 
sigma           sigma [ 1 0 -2 0 0 0 0 ] 0.01;

// ************************************************************************* //
