/*--------------------------------*- C++ -*----------------------------------*\
  =========                 |
  \\      /  F ield         | OpenFOAM: The Open Source CFD Toolbox
   \\    /   O peration     | Website:  https://openfoam.org
    \\  /    A nd           | Version:  7
     \\/     M anipulation  |
\*---------------------------------------------------------------------------*/
FoamFile
{
    version     2.0;
    format      ascii;
    class       dictionary;
    object      blockMeshDict;
}
// * * * * * * * * * * * * * * * * * * * * * * * * * * * * * * * * * * * * * //

convertToMeters 1e-3;

vertices
(
    (0 0 0) //0
    (0 8.5 0)  //1
    (0.4995241108 8.5 -0.02180969368)  //2
    (0.4995241108 8.5 0.02180969368)  //3
    (2.997144665 8.5 -0.1308581621)  //4
    (2.997144665 8.5 0.1308581621)  //5
    (0.4995241108 0 -0.02180969368)  //6
    (0.4995241108 0 0.02180969368)  //7
    (2.997144665 0 -0.1308581621)  //8
    (2.997144665 0 0.1308581621)  //9
);

blocks
(
    hex (0 6 2 1 0 7 3 1) (5 85 1) simpleGrading (1 1 1)
    hex (6 8 4 2 7 9 5 3) (25 85 1) simpleGrading (1 1 1)
);

edges
(
);

boundary
(
    upperElectrode
    {
        type patch;
        faces
        (
            (1 3 2 1)
        );
    }
    lowerElectrode
    {
        type patch;
        faces
        (
            (0 6 7 0)
        );
    }
    walls
    {
        type wall;
        faces
        (
            (2 3 5 4)
            (7 9 8 6)
            (5 9 8 4)
        );
    }
    wedgeFront
    {
        type wedge;
        faces
        (
            (0 1 2 6)
            (6 2 4 8)
        );
    }
    wedgeBack
    {
        type wedge;
        faces
        (
            (0 1 3 7)
            (7 3 5 9)
        );
    }
    axis
    {
        type empty;
        faces
        (
            (0 1 1 0)
        );
    }
);

mergePatchPairs
(
);


// ************************************************************************* //
