/*--------------------------------*- C++ -*----------------------------------*\
  =========                 |
| \\      /  F ield         | OpenFOAM: The Open Source CFD Toolbox           |
|  \\    /   O peration     | Version:  7.0                                   |
|   \\  /    A nd           | Website:  https://openfoam.org                  |
|    \\/     M anipulation  |                                                 |
\*---------------------------------------------------------------------------*/
FoamFile
{
    version     2.0;
    format      ascii;
    class       dictionary;
    object      fvSolution;
}
// * * * * * * * * * * * * * * * * * * * * * * * * * * * * * * * * * * * * * //

solvers
{

    "alpha.water.*"
    {
        nAlphaCorr      2;
        nAlphaSubCycles 2;
        cAlpha          1;

        MULESCorr       yes;
        nLimiterIter    3;

        solver          smoothSolver;
        smoother        symGaussSeidel;
        tolerance       1e-8;
        relTol          0;
    }
    
    pcorrFinal
    {
        solver          GAMG;
        tolerance       1e-6;
        relTol          0;
        smoother        DIC;
        cacheAgglomeration true;
        nCellsInCoarsestLevel 10;
        agglomerator    faceAreaPair;
        mergeLevels     1;
    }
    
    "(p_rgh.*|pcorr)"
    {
        solver          GAMG;
        tolerance       1e-10;
        relTol          0.01;
        smoother        DIC;
        cacheAgglomeration true;
        nCellsInCoarsestLevel 10;
        agglomerator    faceAreaPair;
        mergeLevels     1;
        
    }

    "(theta.*|tau.*|U)"
    {

        solver           PBiCG;
        preconditioner
        {
            preconditioner DILU;
        }

        tolerance         1e-10;
        relTol            0;
        minIter           0;
        maxIter           1000;
    }

    Ep
    {
        solver          PCG;
        preconditioner  DIC;
        tolerance       1e-06;
        relTol          0;
    }

    EpFinal
    {
        $Ep;
        //tolerance       1e-06;
        relTol          0;
    } 

    rhoE
    {
        solver		 PBiCG;
        preconditioner   DILU;
        tolerance        1e-18;
        relTol           0.000;
    }

}


PIMPLE
{
    nInIter         1;
    SIMPLEC         true;
    
    nCorrectors     1;
    nNonOrthogonalCorrectors 0;

    pRefCell        0;
    pRefValue       0;
}

relaxationFactors
{
    equations
    {
        ".*" 1;
    }
}

// ************************************************************************* //
