/*--------------------------------*- C++ -*----------------------------------*\
  =========                 |
  \\      /  F ield         | OpenFOAM: The Open Source CFD Toolbox
   \\    /   O peration     | Website:  https://openfoam.org
    \\  /    A nd           | Version:  7
     \\/     M anipulation  |
\*---------------------------------------------------------------------------*/
FoamFile
{
    version     2.0;
    format      ascii;
    class       dictionary;
    location    "system";
    object      setFieldsDict;
}
// * * * * * * * * * * * * * * * * * * * * * * * * * * * * * * * * * * * * * //

defaultFieldValues
(
    volScalarFieldValue alpha.water 0
    volScalarFieldValue rhoE 0
);

regions
(
    cylinderToCell
    {
        p1 (0 3e-03 -0.0085);
        p2 (0 3e-03 0.0085);
        radius 1e-03;

        fieldValues
        (
            volScalarFieldValue alpha.water 1
            //volScalarFieldValue rhoE 0.01
        );
    }

    cylinderToCell
    {
        p1 (0 5.5e-03 -0.0085);
        p2 (0 5.5e-03 0.0085);
        radius 1e-03;

        fieldValues
        (
            volScalarFieldValue alpha.water 1
            //volScalarFieldValue rhoE 0.01
        );
    }
);


// ************************************************************************* //
